Version 4
SHEET 1 1972 980
WIRE -400 -144 -800 -144
WIRE -400 -64 -400 -144
WIRE -448 -48 -496 -48
WIRE -800 -16 -800 -144
WIRE -448 0 -480 0
WIRE 528 32 304 32
WIRE 832 32 528 32
WIRE -800 96 -800 64
WIRE -800 96 -1024 96
WIRE 304 96 304 32
WIRE -800 112 -800 96
WIRE -400 112 -400 16
WIRE -240 112 -400 112
WIRE -80 112 -160 112
WIRE 64 112 0 112
WIRE 384 128 352 128
WIRE -496 144 -496 -48
WIRE -496 144 -624 144
WIRE 384 144 384 128
WIRE 384 144 352 144
WIRE 352 160 352 144
WIRE 384 160 384 144
WIRE 528 160 528 32
WIRE 64 176 64 112
WIRE 240 176 64 176
WIRE 304 224 304 192
WIRE 832 224 832 32
WIRE -624 240 -624 144
WIRE -240 240 -400 240
WIRE -80 240 -160 240
WIRE 64 240 64 176
WIRE 64 240 0 240
WIRE -480 256 -480 0
WIRE -480 256 -512 256
WIRE -448 256 -480 256
WIRE -496 304 -496 144
WIRE -448 304 -496 304
WIRE -800 320 -800 192
WIRE -624 320 -800 320
WIRE -512 320 -512 256
WIRE -512 320 -624 320
WIRE -400 320 -512 320
WIRE -304 336 -800 336
WIRE -352 352 -480 352
WIRE 304 352 304 304
WIRE 480 352 304 352
WIRE 528 352 528 240
WIRE 528 352 480 352
WIRE -800 368 -800 336
WIRE 832 368 832 304
WIRE 976 368 832 368
WIRE 1088 368 1056 368
WIRE 1104 368 1088 368
WIRE 1232 368 1184 368
WIRE 832 384 832 368
WIRE 1088 384 1088 368
WIRE -352 400 -400 400
WIRE 1232 400 1232 368
WIRE -304 448 -304 416
WIRE -224 448 -304 448
WIRE -64 448 -144 448
WIRE 304 448 304 352
WIRE -800 480 -800 448
WIRE -800 480 -912 480
WIRE 384 480 352 480
WIRE 384 496 384 480
WIRE 384 496 352 496
WIRE -800 512 -800 480
WIRE 352 512 352 496
WIRE 384 512 384 496
WIRE 832 512 832 448
WIRE 976 512 832 512
WIRE 1088 512 1088 448
WIRE 1088 512 1056 512
WIRE 1104 512 1088 512
WIRE 1232 512 1232 480
WIRE 1232 512 1184 512
WIRE 16 528 16 448
WIRE 240 528 16 528
WIRE -480 560 -480 352
WIRE -480 560 -608 560
WIRE 832 560 832 512
WIRE -224 576 -320 576
WIRE -64 576 -144 576
WIRE 16 576 16 528
WIRE 304 592 304 544
WIRE -320 624 -320 576
WIRE -400 640 -400 400
WIRE -400 640 -432 640
WIRE -368 640 -400 640
WIRE -480 688 -480 560
WIRE -368 688 -480 688
WIRE -608 720 -608 560
WIRE 304 720 304 672
WIRE 304 720 176 720
WIRE 304 736 304 720
WIRE 400 736 304 736
WIRE 832 736 832 640
WIRE 832 736 400 736
WIRE 400 800 400 736
WIRE -800 832 -800 592
WIRE -608 832 -608 800
WIRE -608 832 -800 832
WIRE -432 832 -432 640
WIRE -432 832 -608 832
WIRE -320 832 -320 704
WIRE -320 832 -432 832
WIRE -912 912 -912 480
WIRE 176 912 176 720
WIRE 176 912 -912 912
WIRE -1024 976 -1024 96
WIRE 480 976 480 352
WIRE 480 976 -1024 976
FLAG 384 160 0
FLAG 384 512 0
FLAG 400 800 0
SYMBOL ind 288 208 R0
SYMATTR InstName L1
SYMATTR Value {LS_EX}
SYMBOL ind 288 576 R0
SYMATTR InstName L2
SYMATTR Value {LS_EX}
SYMBOL ind 512 144 R0
SYMATTR InstName L3
SYMATTR Value {L_DPT}
SYMBOL ind 960 384 R270
WINDOW 0 32 56 VTop 2
WINDOW 3 5 56 VBottom 2
SYMATTR InstName L6
SYMATTR Value 2n
SYMBOL ind 960 528 R270
WINDOW 0 32 56 VTop 2
WINDOW 3 5 56 VBottom 2
SYMATTR InstName L7
SYMATTR Value 2n
SYMBOL ind 1088 384 R270
WINDOW 0 32 56 VTop 2
WINDOW 3 5 56 VBottom 2
SYMATTR InstName L8
SYMATTR Value 10µ
SYMBOL ind 1088 528 R270
WINDOW 0 32 56 VTop 2
WINDOW 3 5 56 VBottom 2
SYMATTR InstName L9
SYMATTR Value 10µ
SYMBOL cap 816 384 R0
SYMATTR InstName C1
SYMATTR Value 2µ
SYMATTR SpiceLine V=VBUS
SYMBOL cap 1072 384 R0
SYMATTR InstName C2
SYMATTR Value 100µ
SYMATTR SpiceLine V=VBUS
SYMBOL voltage 1232 384 R0
SYMATTR InstName V1
SYMATTR Value {VBUS}
SYMBOL res 16 96 R90
WINDOW 0 0 56 VBottom 2
WINDOW 3 32 56 VTop 2
SYMATTR InstName R1
SYMATTR Value {Rgon}
SYMBOL res 16 224 R90
WINDOW 0 0 56 VBottom 2
WINDOW 3 32 56 VTop 2
SYMATTR InstName R2
SYMATTR Value {Rgoff}
SYMBOL ind -144 96 R90
WINDOW 0 5 56 VBottom 2
WINDOW 3 32 56 VTop 2
SYMATTR InstName L10
SYMATTR Value {L_GATE}
SYMBOL ind -144 224 R90
WINDOW 0 5 56 VBottom 2
WINDOW 3 32 56 VTop 2
SYMATTR InstName L11
SYMATTR Value {L_GATE}
SYMBOL res 32 432 R90
WINDOW 0 0 56 VBottom 2
WINDOW 3 32 56 VTop 2
SYMATTR InstName R3
SYMATTR Value {Rgon}
SYMBOL res 32 560 R90
WINDOW 0 0 56 VBottom 2
WINDOW 3 32 56 VTop 2
SYMATTR InstName R4
SYMATTR Value {Rgoff}
SYMBOL ind -128 432 R90
WINDOW 0 5 56 VBottom 2
WINDOW 3 32 56 VTop 2
SYMATTR InstName L12
SYMATTR Value {L_GATE}
SYMBOL ind -128 560 R90
WINDOW 0 5 56 VBottom 2
WINDOW 3 32 56 VTop 2
SYMATTR InstName L13
SYMATTR Value {L_GATE}
SYMBOL sw -400 32 M180
SYMATTR InstName S1
SYMATTR Value SW_GDH
SYMBOL sw -400 336 M180
SYMATTR InstName S2
SYMATTR Value SW_GDL
SYMBOL sw -304 432 M180
SYMATTR InstName S3
SYMATTR Value SW_GDH
SYMBOL sw -320 720 M180
SYMATTR InstName S4
SYMATTR Value SW_GDL
SYMBOL voltage -800 -32 R0
SYMATTR InstName V2
SYMATTR Value {VDRV_P}
SYMBOL voltage -800 96 R0
SYMATTR InstName V3
SYMATTR Value {VDRV_N}
SYMBOL voltage -800 352 R0
SYMATTR InstName V4
SYMATTR Value {VDRV_P}
SYMBOL voltage -800 496 R0
SYMATTR InstName V5
SYMATTR Value {VDRV_N}
SYMBOL voltage -624 224 R0
WINDOW 123 0 0 Left 2
WINDOW 39 0 0 Left 2
SYMATTR InstName V6
SYMATTR Value PULSE(1 -1 0 1n 1n {T_ON} {T_P} 2)
SYMBOL voltage -608 704 R0
WINDOW 123 0 0 Left 2
WINDOW 39 0 0 Left 2
SYMATTR InstName V7
SYMATTR Value PULSE(-1 1 {DT} 1n 1n {T_ON-2*DT} {T_P} 2)
SYMBOL GaN_E-HEMT_LT_GS66508B_L3V2 256 496 R0
SYMATTR InstName U2
SYMBOL GaN_E-HEMT_LT_GS66508B_L3V2 256 144 R0
SYMATTR InstName U1
SYMBOL ind 816 208 R0
SYMATTR InstName L4
SYMATTR Value {L_DS}
SYMBOL ind 816 544 R0
SYMATTR InstName L5
SYMATTR Value {L_DS}
TEXT -496 -320 Left 2 !.model SW_GDH VSWITCH Roff=1e6 Ron=2 Voff=0 Von=1
TEXT -488 -288 Left 2 !.model SW_GDL VSWITCH Roff=1e6 Ron=4 Voff=0 Von=1
TEXT 1632 -232 Left 2 !.tran 0 3U 0 0.1N
TEXT 1640 -192 Left 2 !.option ITL1 = 500
TEXT 1640 -160 Left 2 !.option ITL2 = 500
TEXT 1640 -128 Left 2 !.option ITL4 = 500
TEXT 1648 -96 Left 2 !.option RELTOL = 0.01
TEXT 1648 -72 Left 2 !.option ABSTOL=1E-09
TEXT 1648 -40 Left 2 !.option CHGTOL=1E-12
TEXT 1656 -8 Left 2 !.option VNTOL=1E-6
TEXT 1648 24 Left 2 !.option GMIN=1E-15
TEXT 1656 64 Left 2 !.option TRTOL=1
TEXT 1656 104 Left 2 !.option noopiter
TEXT 1656 136 Left 2 !.option gminsteps=0
TEXT 1648 176 Left 2 !.option topologycheck=0
TEXT 1656 216 Left 2 !.option temp=25
TEXT 1656 264 Left 2 !.param VBUS = 400
TEXT 1664 296 Left 2 !.param ISW=30
TEXT 1656 328 Left 2 !.param Rgon=10
TEXT 1656 352 Left 2 !.param Rgoff = 2
TEXT 1664 384 Left 2 !.param VDRV_P=6
TEXT 1664 416 Left 2 !.param VDRV_N=3
TEXT 1672 448 Left 2 !.param DT=100n
TEXT 1672 480 Left 2 !.param T_ON=2U
TEXT 1528 504 Left 2 !.param L_DPT=VBUS*(T_ON-2*DT)/ISW
TEXT 1536 552 Left 2 !.param T_P = 2.5U
TEXT 1544 600 Left 2 !.param L_GATE = 3N
TEXT 1552 640 Left 2 !.param LS_EX = 10p
TEXT 1560 688 Left 2 !.param L_DS=3n
