Version 4
SHEET 1 1972 980
WIRE 176 -208 -1024 -208
WIRE -400 -144 -800 -144
WIRE -400 -64 -400 -144
WIRE -448 -48 -496 -48
WIRE -800 -16 -800 -144
WIRE -448 0 -480 0
WIRE 880 32 304 32
WIRE 944 32 880 32
WIRE 304 80 304 32
WIRE 496 80 304 80
WIRE -1024 96 -1024 -208
WIRE -800 96 -800 64
WIRE -800 96 -1024 96
WIRE 304 96 304 80
WIRE 944 96 944 32
WIRE 1072 96 944 96
WIRE 1216 96 1152 96
WIRE -800 112 -800 96
WIRE -400 112 -400 16
WIRE -240 112 -400 112
WIRE -80 112 -160 112
WIRE 64 112 0 112
WIRE 400 128 352 128
WIRE -496 144 -496 -48
WIRE -496 144 -624 144
WIRE 400 160 352 160
WIRE 528 160 480 160
WIRE 64 176 64 112
WIRE 240 176 64 176
WIRE 608 176 608 160
WIRE 880 208 880 32
WIRE 880 208 848 208
WIRE 912 208 880 208
WIRE 176 224 176 -208
WIRE 256 224 256 208
WIRE 256 224 176 224
WIRE 304 224 304 192
WIRE 544 224 304 224
WIRE -624 240 -624 144
WIRE -240 240 -400 240
WIRE -80 240 -160 240
WIRE 64 240 64 176
WIRE 64 240 0 240
WIRE -480 256 -480 0
WIRE -480 256 -512 256
WIRE -448 256 -480 256
WIRE 304 256 304 224
WIRE 1216 272 1216 96
WIRE 1344 272 1216 272
WIRE 1440 272 1424 272
WIRE -496 304 -496 144
WIRE -448 304 -496 304
WIRE 848 304 848 288
WIRE 880 304 880 288
WIRE 912 304 912 288
WIRE -800 320 -800 192
WIRE -624 320 -800 320
WIRE -512 320 -512 256
WIRE -512 320 -624 320
WIRE -400 320 -512 320
WIRE -304 336 -800 336
WIRE 624 336 304 336
WIRE -352 352 -480 352
WIRE 304 352 304 336
WIRE 1216 352 1216 272
WIRE 1440 352 1440 272
WIRE -800 368 -800 336
WIRE 848 384 848 368
WIRE 880 384 880 368
WIRE 912 384 912 368
WIRE -352 400 -400 400
WIRE -304 448 -304 416
WIRE -224 448 -304 448
WIRE -64 448 -144 448
WIRE 304 448 304 432
WIRE 416 448 416 432
WIRE 416 448 304 448
WIRE 880 464 848 464
WIRE 912 464 880 464
WIRE -800 480 -800 448
WIRE -800 480 -912 480
WIRE 400 480 352 480
WIRE 1216 496 1216 416
WIRE 1344 496 1216 496
WIRE 1440 496 1440 432
WIRE 1440 496 1424 496
WIRE 1472 496 1440 496
WIRE -800 512 -800 480
WIRE 384 512 352 512
WIRE 512 512 464 512
WIRE 16 528 16 448
WIRE 240 528 16 528
WIRE 592 528 592 512
WIRE -480 560 -480 352
WIRE -480 560 -608 560
WIRE 256 560 176 560
WIRE -224 576 -320 576
WIRE -64 576 -144 576
WIRE 16 576 16 528
WIRE 1072 592 1024 592
WIRE 1216 592 1216 496
WIRE 1216 592 1152 592
WIRE -320 624 -320 576
WIRE -400 640 -400 400
WIRE -400 640 -432 640
WIRE -368 640 -400 640
WIRE 304 640 304 544
WIRE 416 640 304 640
WIRE -480 688 -480 560
WIRE -368 688 -480 688
WIRE -608 720 -608 560
WIRE 304 736 304 640
WIRE 400 736 304 736
WIRE 880 736 880 464
WIRE 880 736 400 736
WIRE 1024 736 1024 592
WIRE 1024 736 880 736
WIRE 400 800 400 736
WIRE -800 832 -800 592
WIRE -608 832 -608 800
WIRE -608 832 -800 832
WIRE -432 832 -432 640
WIRE -432 832 -608 832
WIRE -320 832 -320 704
WIRE -320 832 -432 832
WIRE 624 848 624 336
WIRE 656 848 624 848
WIRE 1472 848 1472 496
WIRE 1472 848 736 848
WIRE -912 912 -912 480
WIRE 176 912 176 560
WIRE 176 912 -912 912
FLAG 400 800 0
FLAG 416 432 BotDrain
FLAG 416 640 BotSource
FLAG 496 80 TopDrain
FLAG 544 224 TopSource
FLAG 592 528 0
FLAG 400 480 JunctionBot
FLAG 400 128 JunctionTop
FLAG 608 176 0
DATAFLAG 400 800 ""
SYMBOL ind 640 864 R270
WINDOW 0 32 56 VTop 2
WINDOW 3 5 56 VBottom 2
SYMATTR InstName L3
SYMATTR Value {L_DPT}
SYMBOL res 16 96 R90
WINDOW 0 0 56 VBottom 2
WINDOW 3 32 56 VTop 2
SYMATTR InstName R1
SYMATTR Value {Rgon}
SYMBOL res 16 224 R90
WINDOW 0 0 56 VBottom 2
WINDOW 3 32 56 VTop 2
SYMATTR InstName R2
SYMATTR Value {Rgoff}
SYMBOL ind -144 96 R90
WINDOW 0 5 56 VBottom 2
WINDOW 3 32 56 VTop 2
SYMATTR InstName L10
SYMATTR Value {L_GATE}
SYMBOL ind -144 224 R90
WINDOW 0 5 56 VBottom 2
WINDOW 3 32 56 VTop 2
SYMATTR InstName L11
SYMATTR Value {L_GATE}
SYMBOL res 32 432 R90
WINDOW 0 0 56 VBottom 2
WINDOW 3 32 56 VTop 2
SYMATTR InstName R3
SYMATTR Value {Rgon}
SYMBOL res 32 560 R90
WINDOW 0 0 56 VBottom 2
WINDOW 3 32 56 VTop 2
SYMATTR InstName R4
SYMATTR Value {Rgoff}
SYMBOL ind -128 432 R90
WINDOW 0 5 56 VBottom 2
WINDOW 3 32 56 VTop 2
SYMATTR InstName L12
SYMATTR Value {L_GATE}
SYMBOL ind -128 560 R90
WINDOW 0 5 56 VBottom 2
WINDOW 3 32 56 VTop 2
SYMATTR InstName L13
SYMATTR Value {L_GATE}
SYMBOL sw -400 32 M180
SYMATTR InstName S1
SYMATTR Value SW_GDH
SYMBOL sw -400 336 M180
SYMATTR InstName S2
SYMATTR Value SW_GDL
SYMBOL sw -304 432 M180
SYMATTR InstName S3
SYMATTR Value SW_GDH
SYMBOL sw -320 720 M180
SYMATTR InstName S4
SYMATTR Value SW_GDL
SYMBOL voltage -800 -32 R0
SYMATTR InstName V2
SYMATTR Value {VDRV_P}
SYMBOL voltage -800 96 R0
SYMATTR InstName V3
SYMATTR Value {VDRV_N}
SYMBOL voltage -800 352 R0
SYMATTR InstName V4
SYMATTR Value {VDRV_P}
SYMBOL voltage -800 496 R0
SYMATTR InstName V5
SYMATTR Value {VDRV_N}
SYMBOL voltage -624 224 R0
WINDOW 123 0 0 Left 2
WINDOW 39 0 0 Left 2
SYMATTR InstName V6
SYMATTR Value PULSE(-1 1 {DT} 1n 1n {T_ON-2*DT} {T_P} 2)
SYMBOL voltage -608 704 R0
WINDOW 123 0 0 Left 2
WINDOW 39 0 0 Left 2
SYMATTR InstName V7
SYMATTR Value PULSE(1 -1 0 1n 1n {T_ON} {T_P} 2)
SYMBOL GaN_E-HEMT_LT_GS66508B_L3V2 256 496 R0
SYMATTR InstName U2
SYMBOL GaN_E-HEMT_LT_GS66508B_L3V2 256 144 R0
SYMATTR InstName U1
SYMBOL ind 288 240 R0
SYMATTR InstName L1
SYMATTR Value 3.724n
SYMBOL ind 288 336 R0
SYMATTR InstName L2
SYMATTR Value 3.724n
SYMBOL cap 1200 352 R0
SYMATTR InstName C1
SYMATTR Value 5e-6
SYMATTR SpiceLine IC={VBUS} Rser=23e-3 Lser=19.9e-9
SYMBOL ind 1440 256 R90
WINDOW 0 5 56 VBottom 2
WINDOW 3 32 56 VTop 2
SYMATTR InstName L4
SYMATTR Value 29.8n
SYMATTR SpiceLine Rser=1037u
SYMBOL ind 1440 480 R90
WINDOW 0 5 56 VBottom 2
WINDOW 3 32 56 VTop 2
SYMATTR InstName L5
SYMATTR Value 48.6n
SYMATTR SpiceLine Rser=1422u
SYMBOL ind 1056 112 R270
WINDOW 0 32 56 VTop 2
WINDOW 3 5 56 VBottom 2
SYMATTR InstName L6
SYMATTR Value 7.14n
SYMATTR SpiceLine Rser=854u
SYMBOL ind 1168 576 R90
WINDOW 0 5 56 VBottom 2
WINDOW 3 32 56 VTop 2
SYMATTR InstName L7
SYMATTR Value 5.658n
SYMATTR SpiceLine Rser=664u
SYMBOL voltage 1440 336 R0
WINDOW 123 0 0 Left 0
WINDOW 39 0 0 Left 0
SYMATTR InstName V1
SYMATTR Value {VBUS}
SYMBOL cap 896 304 R0
SYMATTR InstName C2
SYMATTR Value 0.1µ
SYMATTR SpiceLine Rser=17.5m Lser=0.75n IC={VBUS}
SYMBOL cap 864 304 R0
SYMATTR InstName C3
SYMATTR Value 0.1µ
SYMATTR SpiceLine Rser=17.5m Lser=0.75n IC={VBUS}
SYMBOL cap 832 304 R0
SYMATTR InstName C4
SYMATTR Value 0.1µ
SYMATTR SpiceLine Rser=17.5m Lser=0.75n IC={VBUS}
SYMBOL ind 928 304 R180
WINDOW 0 36 80 Left 2
WINDOW 3 36 40 Left 2
SYMATTR InstName L8
SYMATTR Value 10n
SYMBOL ind 896 304 R180
WINDOW 0 36 80 Left 2
WINDOW 3 36 40 Left 2
SYMATTR InstName L9
SYMATTR Value 10n
SYMBOL ind 864 304 R180
WINDOW 0 36 80 Left 2
WINDOW 3 36 40 Left 2
SYMATTR InstName L14
SYMATTR Value 10n
SYMBOL ind 864 480 R180
WINDOW 0 36 80 Left 2
WINDOW 3 36 40 Left 2
SYMATTR InstName L15
SYMATTR Value 12n
SYMBOL ind 896 480 R180
WINDOW 0 36 80 Left 2
WINDOW 3 36 40 Left 2
SYMATTR InstName L16
SYMATTR Value 12n
SYMBOL ind 928 480 R180
WINDOW 0 36 80 Left 2
WINDOW 3 36 40 Left 2
SYMATTR InstName L17
SYMATTR Value 12n
SYMBOL voltage 512 160 R270
WINDOW 0 32 56 VTop 2
WINDOW 3 -32 56 VBottom 2
WINDOW 123 0 0 Left 0
WINDOW 39 0 0 Left 0
SYMATTR InstName V8
SYMATTR Value 25
SYMBOL voltage 496 512 R270
WINDOW 0 32 56 VTop 2
WINDOW 3 -32 56 VBottom 2
WINDOW 123 0 0 Left 0
WINDOW 39 0 0 Left 0
SYMATTR InstName V9
SYMATTR Value 25
SYMBOL res 480 496 R90
WINDOW 0 0 56 VBottom 2
WINDOW 3 32 56 VTop 2
SYMATTR InstName R5
SYMATTR Value 0
SYMBOL res 496 144 R90
WINDOW 0 0 56 VBottom 2
WINDOW 3 32 56 VTop 2
SYMATTR InstName R6
SYMATTR Value 0
TEXT -496 -320 Left 2 !.model SW_GDH VSWITCH Roff=1e6 Ron=2 Voff=0 Von=1
TEXT -488 -288 Left 2 !.model SW_GDL VSWITCH Roff=1e6 Ron=4 Voff=0 Von=1
TEXT 1632 -232 Left 2 !.tran 0 8U 0
TEXT 1640 -192 Left 2 !.option ITL1 = 500
TEXT 1640 -160 Left 2 !.option ITL2 = 500
TEXT 1640 -128 Left 2 !.option ITL4 = 500
TEXT 1648 -96 Left 2 !.option RELTOL = 0.01
TEXT 1648 -72 Left 2 !.option ABSTOL=1E-09
TEXT 1648 -40 Left 2 !.option CHGTOL=1E-12
TEXT 1656 -8 Left 2 !.option VNTOL=1E-6
TEXT 1648 24 Left 2 !.option GMIN=1E-15
TEXT 1656 64 Left 2 !.option TRTOL=1
TEXT 1656 104 Left 2 !.option noopiter
TEXT 1656 136 Left 2 !.option gminsteps=0
TEXT 1648 176 Left 2 !.option topologycheck=0
TEXT 1656 216 Left 2 !.option temp=25
TEXT 1656 264 Left 2 !.param VBUS = 275
TEXT 1664 296 Left 2 !.param ISW=11.5
TEXT 1656 328 Left 2 !.param Rgon=10
TEXT 1656 352 Left 2 !.param Rgoff = 2
TEXT 1664 384 Left 2 !.param VDRV_P=6
TEXT 1664 416 Left 2 !.param VDRV_N=3
TEXT 1672 448 Left 2 !.param DT=1000n
TEXT 1672 480 Left 2 !.param T_ON=4U
TEXT 1528 504 Left 2 !.param L_DPT=VBUS*(T_ON-2*DT)/ISW
TEXT 1536 552 Left 2 !.param T_P = 6U
TEXT 1544 600 Left 2 !.param L_GATE = 6N
TEXT 1552 640 Left 2 !.param LS_EX = 10p
TEXT 1560 688 Left 2 !.param L_DS=3n
